LTspice 24.0.12 for Windows
Circuit: * C:\Users\lucas\Desktop\python\2.2\simulaciones spice\figura 4\Pasa_Banda.asc
Start Time: Wed Jun 25 15:45:36 2025
solver = Normal
Maximum thread count: 16
tnom = 27
temp = 27
method = modified trap
.OP point found by inspection.
Total elapsed time: 0.459 seconds.

